#======================================================================

# CRYSTAL DATA

#----------------------------------------------------------------------

data_VESTA_phase_1


_chemical_name_common                  'na.09 ca.616 mg.902 fe.21 al.342 ti.02'
_cell_length_a                         9.69900
_cell_length_b                         8.84400
_cell_length_c                         5.27200
_cell_angle_alpha                      90
_cell_angle_beta                       106.97000
_cell_angle_gamma                      90
_space_group_name_H-M_alt              'C 2/c'
_space_group_IT_number                 15

loop_
_space_group_symop_operation_xyz
   'x, y, z'
   '-x, -y, -z'
   '-x, y, -z+1/2'
   'x, -y, z+1/2'
   'x+1/2, y+1/2, z'
   '-x+1/2, -y+1/2, -z'
   '-x+1/2, y+1/2, -z+1/2'
   'x+1/2, -y+1/2, z+1/2'

loop_
   _atom_site_label
   _atom_site_occupancy
   _atom_site_fract_x
   _atom_site_fract_y
   _atom_site_fract_z
   _atom_site_adp_type
   _atom_site_B_iso_or_equiv
   _atom_site_type_symbol
   Na1        0.0900  0.000000      0.295200      0.250000     Biso  1.000000 Na
   Ca1        0.6160  0.000000      0.295200      0.250000     Biso  1.000000 Ca
   Mg1        0.7150  0.000000      0.906300      0.250000     Biso  1.000000 Mg
   Mg2        0.1870  0.000000      0.295200      0.250000     Biso  1.000000 Mg
   Fe1        0.1070  0.000000      0.295200      0.250000     Biso  1.000000 Fe
   Fe2        0.1030  0.000000      0.906300      0.250000     Biso  1.000000 Fe
   Al1        0.1820  0.000000      0.906300      0.250000     Biso  1.000000 Al
   Al2        0.0800  0.289600      0.092400      0.235300     Biso  1.000000 Al
   Ti1        0.0100  0.289600      0.092400      0.235300     Biso  1.000000 Ti
   Si1        0.9100  0.289600      0.092400      0.235300     Biso  1.000000 Si
   O1         1.0     0.115000      0.086500      0.140200     Biso  1.000000 O
   O2         1.0     0.364700      0.253000      0.326000     Biso  1.000000 O
   O3         1.0     0.325600      0.018500      0.001300     Biso  1.000000 O
