#======================================================================

# CRYSTAL DATA

#----------------------------------------------------------------------

data_VESTA_phase_1


_chemical_name_common                  'mg.78 fe1.04 ca.18 si2 o6'
_cell_length_a                         9.70600
_cell_length_b                         8.95000
_cell_length_c                         5.24600
_cell_angle_alpha                      90
_cell_angle_beta                       108.59000
_cell_angle_gamma                      90
_space_group_name_H-M_alt              'P 21/c'
_space_group_IT_number                 14

loop_
_space_group_symop_operation_xyz
   'x, y, z'
   '-x, -y, -z'
   '-x, y+1/2, -z+1/2'
   'x, -y+1/2, z+1/2'

loop_
   _atom_site_label
   _atom_site_occupancy
   _atom_site_fract_x
   _atom_site_fract_y
   _atom_site_fract_z
   _atom_site_adp_type
   _atom_site_B_iso_or_equiv
   _atom_site_type_symbol
   Mg1        0.7200  0.250800      0.654800      0.232800     Biso  0.614381 Mg
   Fe1        0.2800  0.250800      0.654800      0.232800     Biso  0.614381 Fe
   Fe2        0.7600  0.256400      0.018300      0.230800     Biso  1.220524 Fe
   Ca2        0.1800  0.256400      0.018300      0.230800     Biso  1.220524 Ca
   Mg2        0.0600  0.256400      0.018300      0.230800     Biso  1.220524 Mg
   SiA        1.0     0.042700      0.339800      0.279700     Biso  0.583637 Si
   SiB        1.0     0.550400      0.836700      0.237200     Biso  0.502751 Si
   O1A        1.0     0.237200      0.340400      0.171500     Biso  0.616555 O
   O2A        1.0     0.122000      0.497000      0.330600     Biso  0.794296 O
   O3A        1.0     0.103700      0.263300      0.577900     Biso  0.905656 O
   O1B        1.0     0.374300      0.834200      0.134400     Biso  0.591444 O
   O2B        1.0     0.629000      0.987700      0.376500     Biso  1.124003 O
   O3B        1.0     0.605300      0.708700      0.477300     Biso  0.907499 O

loop_
   _atom_site_aniso_label
   _atom_site_aniso_U_11
   _atom_site_aniso_U_22
   _atom_site_aniso_U_33
   _atom_site_aniso_U_12
   _atom_site_aniso_U_13
   _atom_site_aniso_U_23
   Mg1	 0.00729  0.00649  0.00977  0.00042  0.00301  0.00023
   Fe1	 0.00729  0.00649  0.00977  0.00042  0.00301  0.00023
   Fe2	 0.01201  0.01826  0.01428  0.00209  0.00162  0.00113
   Ca2	 0.01201  0.01826  0.01428  0.00209  0.00162  0.00113
   Mg2	 0.01201  0.01826  0.01428  0.00209  0.00162  0.00113
   SiA	 0.00729  0.00609  0.00864 -0.00042  0.00232 -0.00271
   SiB	 0.00600  0.00649  0.00651 -0.00167  0.00185  0.00135
   O1A	 0.00472  0.00933  0.00839 -0.00167  0.00070 -0.00293
   O2A	 0.01758  0.00528  0.00952 -0.00083  0.00742 -0.00180
   O3A	 0.00600  0.01217  0.01516 -0.00250  0.00185  0.00519
   O1B	 0.00986  0.00649  0.00701  0.00125  0.00394 -0.00158
   O2B	 0.00943  0.01826  0.01741 -0.00751  0.00765 -0.00744
   O3B	 0.00429  0.01542  0.01328 -0.00209  0.00070  0.00541
